/*--------------------------------*- C++ -*----------------------------------*\
| transportProperties -- Al-5%Mg (5A05 / ER5356) for laserbeamFoam, ESI v2506  |
| Generated by make_transport.py. Do not hand-edit: regenerate.                |
|                                                                             |
| Key names and structure copied from tutorials/laserbeamFoam/Plate2D, which   |
| is a STEEL case. Values are the Phase 2 property set for Al-5%Mg.            |
|                                                                             |
| TWO STRUCTURAL LIMITATIONS FOUND WHILE WRITING THIS -- read before using.    |
|                                                                             |
| 1. Elec_conductivity is a SINGLE SCALAR per phase. It cannot be made         |
|    temperature dependent through this dictionary. The Phase 2 sigma_e(T)     |
|    runs 1.64e7 (300 K) -> 8.15e6 (solidus) -> 3.65e6 (liquidus), a factor    |
|    of 4.5 across the range, and all of that collapses to one number here.    |
|    3.65e6, the liquidus value, is used because the melt is what carries the  |
|    MHD. But note the SOLID is then understated by 4.5x -- which matters for  |
|    Phase 6, where injected current must flow through the substrate. Expect   |
|    to need a code change there, not a dictionary entry.                      |
|                                                                             |
| 2. poly_kappa was ONE polynomial per phase, and aluminium's thermal          |
|    conductivity HALVES on melting (162 -> 81 W/mK across 91 K). No smooth    |
|    degree-7 polynomial can represent that step -- the best full-range fit    |
|    was 84% wrong at the liquidus, sitting exactly at the solidification      |
|    front where Darcy damping kills velocity and conduction dominates.        |
|    RESOLVED by patch_kappa.py, which adds poly_kappa_solid and               |
|    poly_kappa_liquid and blends them by liquid fraction in updateKappaCp.H,  |
|    following the pattern the solver already uses for emS/emL in TEqn.H.      |
|    Worst error anywhere is now 2.6%, confined to the mushy window, and that  |
|    residual is a difference of mixing rule rather than a fitting failure.    |
|    THIS DICTIONARY REQUIRES THE PATCHED SOLVER to get that accuracy. On an   |
|    unpatched build the poly_kappa fallback below is used instead, silently,  |
|    and the 84% error returns. Check the "Metal kappa:" line the solver       |
|    prints at startup.                                                        |
\*---------------------------------------------------------------------------*/
FoamFile
{
    version     2.0;
    format      ascii;
    class       dictionary;
    location    "constant";
    object      transportProperties;
}
// * * * * * * * * * * * * * * * * * * * * * * * * * * * * * * * * * * * * * //

interfaceTrackingScheme isoAdvector;

electromagnetics    true;      // MTHD on. Costs 2.7x wall clock (Phase 1).

phases (metal gas);

metal
{
    transportModel  Newtonian;

    // kinematic viscosity = mu/rho = 1.25e-3/2650. [MEAS] Assael et al. 2006
    // for liquid Al, 1.25 mPa.s at the melting point.
    nu              4.71698e-07;

    // [ZHAO] Table 4. ONE constant for both phases; real liquid Al-5Mg near the
    // liquidus is ~2350, so the melt is modelled ~13% heavy. Kept for fidelity.
    rho             2650;

    Tsolidus        815;        // K  [ZHAO] Table 4, via Mills LM5/5182
    Tliquidus       906;        // K  [ZHAO] Table 4, via Mills LM5/5182
    LatentHeat      3.58e5;     // J/kg [ZHAO] Table 4
    beta            3.0e-5;     // 1/K  [ZHAO] Table 4

    // [CONSTR] Wiedemann-Franz from sigma_e(T), validated to 1-2% against pure
    // Al solid and liquid at Tm and against 5182 at 300 K.
    //
    // TWO BRANCHES. Aluminium's kappa halves on melting, which one polynomial
    // cannot represent (84% wrong at the liquidus). These are blended by
    // liquid fraction in updateKappaCp.H -- see patch_kappa.py. Worst error
    // anywhere with the blend: 2.6%, confined to the mushy window.
    poly_kappa_solid    (1.549249e+01 5.364784e-01 -7.678846e-04 5.249716e-07 -1.466608e-10 0 0 0);
    poly_kappa_liquid   (1.913178e+01 1.058187e-01 -5.717666e-05 1.927299e-08 -2.557323e-12 0 0 0);

    // Fallback for an UNPATCHED solver. Ignored when the two entries above are
    // present. Kept so this dictionary stays usable either way.
    poly_kappa      (-4.838673e+02 5.576118e+00 -2.106271e-02 4.257154e-05 -4.834328e-08 3.054932e-11 -9.992168e-15 1.316819e-18);

    // [CONSTR] anchored on pure Al; Neumann-Kopp for 5% Mg shifts it +0.7%.
    // Max fit error 1.6% over 300-2000 K.
    poly_cp         (1.092350e+03 -1.799618e+00 5.469633e-03 -5.762850e-06 2.611187e-09 -4.336337e-13 0 0);

    // [CONSTR] liquidus value. See limitation 1 -- this is not a constant in
    // reality, and the solid is 4.5x higher.
    Elec_conductivity   3.65e6;
    Mag_permitivity     1.25664e-6;   // [ZHAO] 4 pi e-7, non-magnetic alloy
}

gas
{
    transportModel  Newtonian;

    // argon at 300 K, 1 atm: mu 2.23e-5 Pa.s, rho 1.6228 kg/m3
    nu              1.37417e-05;
    rho             1.6228;

    // dummy phase-change values so the gas is always treated as liquid
    Tsolidus        1.0;
    Tliquidus       10.0;
    LatentHeat      1;

    // ideal gas, beta = 1/T at 300 K. If the gas phase shows spurious buoyant
    // motion, reduce this -- the tutorial used 4e-5 for the same reason.
    beta            3.33e-3;

    // argon conductivity, linear fit 0.018 (300 K) to 0.070 (2000 K)
    poly_kappa      (8.400000e-03 3.100000e-05 0 0 0 0 0 0);

    // monatomic ideal gas, cp = 5R/2M = 520.3 J/kgK, constant
    poly_cp         (520.3 0 0 0 0 0 0 0);

    // Filled per case by generate_cases.py from sigma_e_gas_ratio in
    // caseMatrix.csv, as ratio * the metal value above. Baseline ratio 1e-6 --
    // the MTHD tutorial's own floor, which held div(muH) at 1e-12 across the
    // jump in Gate B. S00/S01 sweep it two orders either side.
    // Cold argon is effectively an insulator; this floor exists only to stop
    // the induction equation going singular as sigma -> 0, so smaller is more
    // physical until numerics complain. That is what the sweep tests.
    Elec_conductivity   3.65;
    Mag_permitivity     1.25664e-6;
}

// ============================================================ interface
// [ZHAO]/[EST] Both are sourced to Mills' PURE ALUMINIUM chapter (ref [34]),
// not the LM5/5182 alloy chapter used for every thermal property. Mg is
// strongly surface-active in Al, so a true Al-5Mg value is lower. 0.85 happens
// to match the OXIDIZED pure-Al figure (0.865); clean pure Al is 1.10.
// Marangoni drives the paper's headline result, so this is the single largest
// uncertainty in the replication. SENSITIVITY CASE REQUIRED.
sigma               0.85;       // N/m
Marangoni_Constant  -1.55e-4;   // N/m/K

p0                  101300;     // Pa [ZHAO] Table 4

// ============================================================ vaporisation
// DELIBERATELY DISABLED. Tvap below is a SWITCH, not a property value.
//
// Zhao assumption 3: "the heat and mass loss caused by vaporization of liquid
// is not considered." Both the recoil pressure (UEqn.H:48) and the evaporative
// heat loss (TEqn.H:31) share one factor, exp(Lv*Mm*(T-Tvap)/(R*T*Tvap)), so
// raising Tvap disables exactly the pair the paper drops. At WAAM temperatures
// the exponent goes to about -21 and both terms fall to ~1e-5 of their value.
//
// WHY, given aluminium's real Tvap is 2743 K:
//   * The recoil PRESSURE was never the issue -- under 2 Pa at 1500 K against
//     228 Pa of arc pressure. WAAM has no keyhole; that is laser physics.
//   * The evaporative COOLING is not negligible: 8.7% of surface heat loss at
//     1500 K, 24% at 1600 K, 70% at 1800 K.
//   * And that is the reason to disable it. Zhao fitted af/ar/b/c against a
//     measured pool shape in a model WITHOUT evaporative cooling, so those
//     coefficients already absorb its absence. Keeping Qv while using their
//     Goldak parameters would apply a heat source tuned for a no-evaporation
//     model AND the cooling, giving a pool too small for an untraceable reason.
//
// CONSEQUENCE -- read this before trusting a hot result:
//   Evaporative cooling is a strong negative feedback above ~1700 K. Removing
//   it removes the physics that would have capped the temperature. Monitor
//   max(T): an Al-5Mg pool has no business above ~1600 K, and with Qv off
//   nothing in the model will stop it.
//
// To restore physical behaviour for a comparison run, set Tvap 2743.
Tvap                1.0e6;      // K    [SWITCH] see above. Al's real value is 2743
Mm                  0.02698;    // kg/mol [MEAS] molar mass of aluminium
LatentHeatVap       1.05e7;     // J/kg [MEAS] Al heat of vaporisation.
                                //   NOTE: do NOT zero this to disable evaporation.
                                //   It is a PREFACTOR in Qv but sits INSIDE the
                                //   exponent in pVap, so Lv=0 gives exp(0)=1 and
                                //   pins pVap at 0.54*p0 = 54,702 Pa everywhere --
                                //   240x arc pressure over the whole free surface.

// EMISSIVITY, blended by liquid fraction in TEqn.H line 15:
//     em = epsilon1*emL + (1 - epsilon1)*emS
// Confirmed by reading the source. The tutorial's 0.4/0.1 are STEEL values.
// [EST] oxidised aluminium: solid 0.3, liquid 0.15. Zhao gives no emissivity.
// Not negligible: radiation overtakes convection at ~1300 K and is 2x it by
// 2000 K, and this pool sits above 906 K throughout. Sensitivity case worthwhile.
emS                 0.3;
emL                 0.15;

TRef                TRef [0 0 0 1 0 0 0] 300;

// ************************************************************************* //
